<?xml version="1.0" ?>
<routes>
  <route id="0" map="Town01">
    <waypoint pitch="360.0" roll="0.0" x="212.72021484375" y="326.6016540527344" yaw="180.00611877441406" z="0.0"/>
    <waypoint pitch="360.0" roll="0.0" x="172.72021484375" y="326.5973815917969" yaw="180.00611877441406" z="0.0"/>
  </route>
  <route id="1" map="Town01">
    <waypoint pitch="360.0" roll="0.0" x="92.4182357788086" y="317.2996826171875" yaw="269.99127197265625" z="0.0"/>
    <waypoint pitch="360.0" roll="0.0" x="92.41215515136719" y="277.2996826171875" yaw="269.99127197265625" z="0.0"/>
  </route>
  <route id="2" map="Town01">
    <waypoint pitch="0.0" roll="0.0" x="101.41983795166016" y="199.14088439941406" yaw="0.004655823577195406" z="0.0"/>
    <waypoint pitch="0.0" roll="0.0" x="142.41983032226562" y="199.1442108154297" yaw="0.004655823577195406" z="0.0"/>
  </route>
  <route id="3" map="Town01">
    <waypoint pitch="0.0" roll="0.0" x="334.7735900878906" y="209.15875244140625" yaw="90.03459930419922" z="0.0"/>
    <waypoint pitch="0.0" roll="0.0" x="334.74884033203125" y="250.1587371826172" yaw="90.03459930419922" z="0.0"/>
  </route>
  <route id="4" map="Town01">
    <waypoint pitch="0.0" roll="0.0" x="12.379361152648926" y="-2.020439863204956" yaw="179.9813232421875" z="0.0"/>
    <waypoint pitch="0.0" roll="0.0" x="-2.0373189449310303" y="28.959228515625" yaw="90.02206420898438" z="0.0"/>
  </route>
  <route id="5" map="Town01">
    <waypoint pitch="360.0" roll="0.0" x="92.4182357788086" y="317.2996826171875" yaw="269.99127197265625" z="0.0"/>
    <waypoint pitch="360.0" roll="0.0" x="92.41215515136719" y="277.2996826171875" yaw="269.99127197265625" z="0.0"/>
  </route>
  <route id="6" map="Town01">
    <waypoint pitch="360.0" roll="0.0" x="294.6701354980469" y="195.15658569335938" yaw="180.00465393066406" z="0.0"/>
    <waypoint pitch="360.0" roll="0.0" x="253.670166015625" y="195.15325927734375" yaw="180.00465393066406" z="0.0"/>
  </route>
  <route id="7" map="Town01">
    <waypoint pitch="0.0" roll="0.0" x="101.41910552978516" y="133.41490173339844" yaw="0.025599390268325806" z="0.0"/>
    <waypoint pitch="0.0" roll="0.0" x="142.41909790039062" y="133.4332275390625" yaw="0.025599390268325806" z="0.0"/>
  </route>
  <route id="8" map="Town01">
    <waypoint pitch="0.0" roll="0.0" x="88.40167236328125" y="208.33030700683594" yaw="89.99127960205078" z="0.0"/>
    <waypoint pitch="0.0" roll="0.0" x="88.40775299072266" y="248.33030700683594" yaw="89.99127960205078" z="0.0"/>
  </route>
  <route id="9" map="Town01">
    <waypoint pitch="360.0" roll="0.0" x="237.64088439941406" y="129.47576904296875" yaw="180.02560424804688" z="0.0"/>
    <waypoint pitch="360.0" roll="0.0" x="197.64088439941406" y="129.4578857421875" yaw="180.02560424804688" z="0.0"/>
  </route>
  <route id="10" map="Town01">
    <waypoint pitch="360.0" roll="0.0" x="325.6701354980469" y="195.1591033935547" yaw="180.00465393066406" z="0.0"/>
    <waypoint pitch="360.0" roll="0.0" x="285.6701354980469" y="195.15585327148438" yaw="180.00465393066406" z="0.0"/>
  </route>
  <route id="11" map="Town01">
    <waypoint pitch="0.0" roll="0.0" x="88.40167236328125" y="208.33030700683594" yaw="89.99127960205078" z="0.0"/>
    <waypoint pitch="0.0" roll="0.0" x="88.40775299072266" y="248.33030700683594" yaw="89.99127960205078" z="0.0"/>
  </route>
  <route id="12" map="Town01">
    <waypoint pitch="0.0" roll="0.0" x="101.6189193725586" y="330.58905029296875" yaw="0.03069334849715233" z="0.0"/>
    <waypoint pitch="0.0" roll="0.0" x="141.61978149414062" y="330.59405517578125" yaw="0.006118634715676308" z="0.0"/>
  </route>
  <route id="13" map="Town01">
    <waypoint pitch="0.0" roll="0.0" x="79.37936401367188" y="-2.042275905609131" yaw="179.9813232421875" z="0.0"/>
    <waypoint pitch="0.0" roll="0.0" x="39.379364013671875" y="-2.0292394161224365" yaw="179.9813232421875" z="0.0"/>
  </route>
  <route id="14" map="Town01">
    <waypoint pitch="360.0" roll="0.0" x="92.4182357788086" y="317.2996826171875" yaw="269.99127197265625" z="0.0"/>
    <waypoint pitch="360.0" roll="0.0" x="92.41215515136719" y="277.2996826171875" yaw="269.99127197265625" z="0.0"/>
  </route>
  <route id="15" map="Town01">
    <waypoint pitch="360.0" roll="0.0" x="212.72021484375" y="326.6016540527344" yaw="180.00611877441406" z="0.0"/>
    <waypoint pitch="360.0" roll="0.0" x="172.72021484375" y="326.5973815917969" yaw="180.00611877441406" z="0.0"/>
  </route>
  <route id="16" map="Town01">
    <waypoint pitch="360.0" roll="0.0" x="92.4182357788086" y="317.2996826171875" yaw="269.99127197265625" z="0.0"/>
    <waypoint pitch="360.0" roll="0.0" x="92.41215515136719" y="277.2996826171875" yaw="269.99127197265625" z="0.0"/>
  </route>
  <route id="17" map="Town01">
    <waypoint pitch="360.0" roll="0.0" x="93.17044067382812" y="321.1266784667969" yaw="-113.38604736328125" z="0.0"/>
    <waypoint pitch="360.0" roll="0.0" x="92.41261291503906" y="280.2996826171875" yaw="269.99127197265625" z="0.0"/>
  </route>
  <route id="18" map="Town01">
    <waypoint pitch="360.0" roll="0.0" x="299.1597595214844" y="55.47456359863281" yaw="179.99301147460938" z="0.0"/>
    <waypoint pitch="360.0" roll="0.0" x="259.1597595214844" y="55.47943878173828" yaw="179.99301147460938" z="0.0"/>
  </route>
  <route id="19" map="Town01">
    <waypoint pitch="0.0" roll="0.0" x="88.40167236328125" y="208.33030700683594" yaw="89.99127960205078" z="0.0"/>
    <waypoint pitch="0.0" roll="0.0" x="88.40775299072266" y="248.33030700683594" yaw="89.99127960205078" z="0.0"/>
  </route>
  <route id="20" map="Town01">
    <waypoint pitch="0.0" roll="0.0" x="88.40167236328125" y="208.33030700683594" yaw="89.99127960205078" z="0.0"/>
    <waypoint pitch="0.0" roll="0.0" x="88.40775299072266" y="248.33030700683594" yaw="89.99127960205078" z="0.0"/>
  </route>
  <route id="21" map="Town01">
    <waypoint pitch="0.0" roll="0.0" x="151.41983032226562" y="199.1449432373047" yaw="0.004655823577195406" z="0.0"/>
    <waypoint pitch="0.0" roll="0.0" x="191.41983032226562" y="199.148193359375" yaw="0.004655823577195406" z="0.0"/>
  </route>
  <route id="22" map="Town01">
    <waypoint pitch="0.0" roll="0.0" x="334.7735900878906" y="209.15875244140625" yaw="90.03459930419922" z="0.0"/>
    <waypoint pitch="0.0" roll="0.0" x="334.74884033203125" y="250.1587371826172" yaw="90.03459930419922" z="0.0"/>
  </route>
  <route id="23" map="Town01">
    <waypoint pitch="360.0" roll="0.0" x="366.22894287109375" y="2.0102462768554688" yaw="0.03045654296875" z="0.0"/>
    <waypoint pitch="360.0" roll="0.0" x="392.36920166015625" y="18.847591400146484" yaw="90.06876373291016" z="0.0"/>
  </route>
  <route id="24" map="Town01">
    <waypoint pitch="360.0" roll="0.0" x="338.70819091796875" y="317.451171875" yaw="270.03460693359375" z="0.0"/>
    <waypoint pitch="360.0" roll="0.0" x="338.7323303222656" y="277.451171875" yaw="270.03460693359375" z="0.0"/>
  </route>
</routes>
